*          DATA SET MCDCHO     AT LEVEL 002 AS OF 08/03/04                      
         MACRO                                                                  
&NAME    DCHO                                                                   
&NAME    DC    H'0'                                                             
         MEND                                                                   
