*          DATA SET MCMVC31    AT LEVEL 003 AS OF 02/03/12                      
         MACRO                                                                  
&NAME    MVC31 &TARGET,&SOURCE                                                  
&NAME    SAM31                                                                  
         MVC   &TARGET,&SOURCE     MOVE DATA                                    
         SAM24                                                                  
         MEXIT                                                                  
         MEND                                                                   
