*          DATA SET MCSHI      AT LEVEL 004 AS OF 08/03/04                      
         MACRO                                                                  
&NAME    SHI   &R,&I               SUBTRACT HALFWORD IMMEDIATE                  
&NAME    AHI   &R,-(&I)                                                         
         MEXIT                                                                  
         MEND                                                                   
