*          DATA SET SRDTI00    AT LEVEL 007 AS OF 03/02/18                      
*&&      SET   NOP=N                                                            
***********************************************************************         
* A BIT OF EXPERIMENTING WITH NO BASE REGISTER CODE IN THIS BOOK      *         
* ONE BASE (RB) IS DEFINED UP FRONT WITH CONSTANTS AND A SPARE        *         
* GAP FOR THE LITERAL POOL.                                           *         
* CODE BEGINS AT RB+4096 JUST AT THE END OF ADDRESSABILITY            *         
* ALSO THE MVCI MACRO TO TRY AND REMOVE                               *         
* THE NEEED FOR LITERALS MOST OF THE TIME.                            *         
***********************************************************************         
         MACRO                                                                  
&NAME    MVCI  &M1,&M2             MVC M1(L2),M2                                
         GBLC  &LBL1                                                            
         LCLA  &LEN1                                                            
&LEN1    SETA  K'&M2-3                                                          
&LBL1    SETC  'LB1&SYSNDX'                                                     
         JAS   R1,&LBL1                                                         
         DC    &M2                                                              
         AIF   ('&M2'(1,1) EQ 'X').PLISTR                                       
&LBL1    MVC   &M1.(&LEN1),0(R1)                                                
         AGO   .RTN                                                             
.PLISTR  ANOP                                                                   
&LBL1    MVC   &M1.((&LEN1)/2),0(R1)                                            
.RTN     MEXIT                                                                  
         MEND                                                                   
                                                                                
*PHASE T16900A                                                                  
         TITLE '$DTI - DATASPACE TASK INFORMATION'                              
DTI      CSECT                                                                  
         PRINT NOGEN                                                            
         NMOD1 WRKL,**$DTI**,RR=RE,CLEAR=YES                                    
         USING WRKD,RC             RC=A(W/S)                                    
         ST    RE,RELO                                                          
         J     DTI000              JUMP TO MAIN PROGRAM (NO BASE REGS)          
         EJECT                                                                  
***********************************************************************         
* CONSTANTS AND LITERALS UP FRONT - KEEP WITHIN 4K BASE REG           *         
***********************************************************************         
SPACES   DC    CL160' '                                                         
CTFILE   DC    CL8'CTFILE'                                                      
DMREAD   DC    CL8'DMREAD'                                                      
TUHOUR   DC    F'138240000'        60*60*38400                                  
TUMINUTE DC    F'2304000'          60*38400                                     
TUSECOND DC    F'38400'            38400                                        
TUMSEC   DC    F'384'              384                                          
ARZERO   DC    4F'0'                                                            
HELPID   DC    XL10'0169FF00010000000000'                                       
         EJECT                                                                  
***********************************************************************         
* MESSAGES AND HEADERS                                                *         
***********************************************************************         
TASKHDR  DC    C'Adv   #T SE    Prog  I/Os   CPU   Run   Adv   #T '             
         DC    C'SE    Prog  I/Os   CPU   Run '                                 
TASKHDRU DC    C'----  -- ----  ----  ----  Time  Time   ----  -- '             
         DC    C'----- ---- -----  Time  Time '                                 
TASKCPU  DC    C'CPU Terminal Logcl Wait for Resource Wtm'                      
TASKCPUU DC    C'pct --------  I/Os -------- -------- ---'                      
*                                                                               
SRVPFKLN DC    C'PF2=Task PF3=Server PF4=Queue PF5=Brief PF6=LongRun'           
         DC    C' PF7/8 Scroll                 '                                
*                                                                               
RUNRHDR  DC    C'Runner   Type          Stat Time   XXXX '                      
         DC    C'Runner   Type          Stat Time   XXXX '                      
RUNRHDRU DC    C'-------- ------------- ---- ------ ---- '                      
         DC    C'-------- ------------- ---- ------ ---- '                      
RUNRLON  DC    C'Worker file            Status 2  Error     '                   
RUNRLONU DC    C'---------------------- --------- ----------'                   
*                                                                               
MSG1     DC    CL50'Dataspace information displayed'                            
*                                                                               
ERR1     DC    CL60'Facpak ID must be numeric in the range 1 - 32'              
ERR2     DC    CL60'Facpak ID number cannot be found within dataspace'          
ERR3     DC    CL60'Facpak is not initialised'                                  
ERR4     DC    CL60'Facpak has no tasks'                                        
ERR5     DS    0CL60                                                            
         DC    C'Start Task must be numeric in the range 1 - '                  
ERR5NUM  EQU   *-ERR5                                                           
         ORG   ERR5+L'ERR5                                                      
         EJECT                                                                  
***********************************************************************         
* TABLES                                                              *         
***********************************************************************         
TYPETAB  DS    0CL13                                                            
         DC    C'A Accent     '    ACCPAK ACCENT                                
         DC    C'B Scribe     '    ACCPAK SCRIBE                                
         DC    C'C Control    '    CONTROL SYSTEM                               
         DC    C'D Demos      '    US DEMOGRAPHICS (COMPARAGRAPH)               
         DC    C'E Na Demos   '    NA DEMOGRAPHICS (DESKTOP)                    
*&&UK*&& DC    C'S Me Stats   '    UK MEDIA STATS                               
*&&US*&& DC    C'S Steward    '    US NETPAK STEWARD                            
         DC    C'N Me  STATS  '    US NETPAK MATCHMAKER                         
*&&UK*&& DC    C'P Me Pay Upld'    EU MEDIA OFFLINE PAY UPLOAD                  
*&&US*&& DC    C'P Printpak   '    NA PRINTPAK ADBUYER                          
         DC    C'T Na Desktop '    NA DESKTOPS                                  
         DC    C'M Me Explore '    EU MEDIA EXPLORER                            
         DC    C'U Me Upload  '    EU MEDIA OFFLINE UPLOAD                      
         DC    C'X Aud Estimat'    US NETPAK AUDIENCE ESTIMATOR                 
         DC    C'O BOc Time   '    BRAND OCEAN TIME UPLOAD                      
         DC    C'W BOc Downloa'    BRAND OCEAN DOWNLOADS                        
         DC    C'  Unknown    '                                                 
                                                                                
STATTAB  DS    0CL11                                                            
         DC    C'B Actv    '                                                    
         DC    C'E Aben    '                                                    
         DC    C'S Wait    '                                                    
         DC    C'  Unkn    '                                                    
*                                                                               
STATTAB2 DS    0CL11                                                            
         DC    C'W Waiting  '                                                   
         DC    C'R Running  '                                                   
         DC    C'P Snd Pnd  '                                                   
         DC    C'S Snd In Pr'                                                   
         DC    C'C Complete '                                                   
                                                                                
ERRORTAB DS    0CL11                                                            
         DC    AL1(000),CL10'No Errors '                                        
         DC    AL1(255),CL10'No ECB    '                                        
         DC    AL1(254),CL10'NO Server '                                        
         DC    AL1(253),CL10'NO Run que'                                        
         DC    AL1(252),CL10'Inv UserId'                                        
         DC    AL1(251),CL10'Inv System'                                        
         DC    AL1(250),CL10'Inv Worker'                                        
         DC    AL1(249),CL10'I/O Exceed'                                        
         DC    AL1(248),CL10'CPU Exceed'                                        
         DC    AL1(247),CL10'Pages Excd'                                        
         DC    AL1(246),CL10'TCB Exceed'                                        
         DC    AL1(245),CL10'Prg Check '                                        
         DC    AL1(244),CL10'Sys Closed'                                        
         DC    AL1(243),CL10'Cancelled '                                        
         DC    AL1(000),CL10'Unknown   '                                        
         EJECT                                                                  
***********************************************************************         
* CREATE AREA FOR LITERAL POOL UP TO 4K BOUNDARY                      *         
***********************************************************************         
LITERALS DS    0D                                                               
         ORG   DTI+4096                                                         
         EJECT                                                                  
***********************************************************************         
* MAIN PROGRAM - NO BASE REGS SO MUST JUMP EVERYWHERE                 *         
***********************************************************************         
DTI000   EQU   *                                                                
         USING SRPARMD,R1          R1=A(PARMS)                                  
         L     RA,SRPARM6                                                       
         USING SRDTIFFD,RA         RA=A(TWA)                                    
         L     R2,SRPARM1                                                       
         USING SYSFACD,R2          R9=A(SYSFACS)                                
         MVC   ASELIST,VSELIST                                                  
         MVC   ADATAMGR,VDATAMGR                                                
         MVC   ASSB,VSSB                                                        
         DROP  R2                                                               
*                                                                               
         L     R2,SRPARM4                                                       
         USING COMFACSD,R2         R2=A(COMFACS)                                
         MVC   VHEXOUT,CHEXOUT     SAVE USEFUL ENTRY POINTS                     
         MVC   AGETFACT,CGETFACT                                                
         MVC   ASWITCH,CSWITCH                                                  
         MVC   AGETHELP,CGETHELP                                                
*                                                                               
         L     RF,SRPARM3                                                       
         USING UTLD,RF                                                          
         ST    RF,AUTL                                                          
         TM    TSVCREQ,X'01'       TEST FIRST TIME                              
         JNO   *+8                                                              
         OI    TSVCREQ,X'02'       SET =XRSOR FLAG                              
         DROP  RF                                                               
*                                                                               
         L     RF,SRPARM8          SET CURSOR INF FROM TIOB                     
         USING TIOBD,RF                                                         
         SR    R0,R0                                                            
         ICM   R0,3,TIOBCURD                                                    
         AR    R0,R3               ADD TWA ADDRESS                              
         ST    R0,CURSOR                                                        
         MVC   CURADR,TIOBCURS                                                  
         MVC   PFKEY,TIOBAID       SAVE PFKEY DATA                              
         MVC   CURI,TIOBCURI                                                    
*                                                                               
         SR    RE,RE               PF1 HELP                                     
         ICM   RE,3,TIOBCURD                                                    
         AR    RE,RA                                                            
         CLI   PFKEY,1             TEST HELP PFKEY                              
         JNE   *+12                                                             
         ST    RE,AHELP            SAVE A(HELP FIELD)                           
         MVI   PFKEY,0                                                          
                                                                                
         DROP  RF                                                               
*                                                                               
         GOTO1 ADATAMGR,DMCB,(0,=CL8'FILTAB'),0                                 
         MVC   AFILTAB,DMCB+4                                                   
*                                                                               
         GOTO1 CGETFACT,DMCB,0     GET A(SYSLIST)                               
         L     R1,0(R1)                                                         
         L     RE,FASYSLST-FACTSD(R1)                                           
         ST    RE,ASYSLST                                                       
         GOTO1 (RF),DMCB,(X'80',FULL),F#SYSADS                                  
         L     R1,FULL                                                          
         MVC   AORALL,AAORALL-SYSADSD(R1)                                       
         DROP  R2,R1               FINISHED WITH COMFACS                        
*                                                                               
HDR      USING FHD,SRVMSGH                                                      
*                                                                               
         BRAS  RE,INIT             INITIALISE                                   
*                                                                               
         CLI   PFKEY,2             TASK KEY                                     
         JNE   *+10                                                             
         MVC   SRVSRV+1(5),=C'DTI,T'                                            
         CLI   PFKEY,3             SERVER KEY                                   
         JNE   *+10                                                             
         MVC   SRVSRV+1(5),=C'DTI,S'                                            
         CLI   PFKEY,4             QUEUE KEY                                    
         JNE   *+10                                                             
         MVC   SRVSRV+1(5),=C'DTI,Q'                                            
*                                                                               
         CLI   PFKEY,5             BRIEF                                        
         JNE   PFKEY001                                                         
         MVC   SRVP2(8),=C'SHORT   '                                            
         MVI   SRVP2H+5,5                                                       
*                                                                               
PFKEY001 CLI   PFKEY,6             LONG/SHORT                                   
         JNE   PFKEY002                                                         
         MVC   SRVP1(8),=C'LONG    '                                            
         MVI   SRVP1H+5,4                                                       
         MVI   CURI,1              FORCE TO LOOK LIKE DATA ENTRY                
*                                                                               
PFKEY002 MVI   MODE,C'T'                                                        
         CLC   SRVSRV+1(4),=C'DTI,'                                             
         JNE   *+10                                                             
         MVC   MODE,SRVSRV+5                                                    
*                                                                               
DTI001   BRAS  RE,VALIDATE                                                      
*                                                                               
         MVC   SRVPFK,SRVPFKLN                                                  
*                                                                               
DTI010   TIME  TU                                                               
         ST    R0,TIMENOW          TIME IN MVS TU'S (1/38400 SEC)               
*                                                                               
         CLI   MODE,C'T'                                                        
         JNE   DTI012                                                           
         BRAS  RE,NEWDTI           DISPLAY TASK INFORMATION                     
*                                                                               
         CLI   KILLTASK,0          ANY KILLS LEFT UNFULFILLED                   
         JE    DTI012              NO                                           
         MVI   KILLTASK,0          DON'T CARRY KILLS TO NEXT ENTER              
         MVC   KILLADV,SPACES                                                   
         MVC   SRVP3+7(8),=C' NO KILL'                                          
*                                                                               
DTI012   CLI   MODE,C'S'                                                        
         JNE   *+8                                                              
         BRAS  RE,NEWDTIR          DISPLAY RUNNER INFORMATION                   
*                                                                               
         CLI   MODE,C'Q'                                                        
         JNE   *+8                                                              
         BRAS  RE,NEWDTIQ          DISPLAY RUNNER INFORMATION                   
         J     EXIT                                                             
*                                                                               
         GOTO1 AGETFACT,DMCB,(X'80',WORK),F#WRITE                               
         GOTO1 AGETFACT,DMCB,(X'80',=F'38400'),F#WAIT 1 SECOND                  
*                                                                               
         LA    R3,SRVL1H                                                        
         USING TSKLINED,R3                                                      
DTI020   MVC   TSKLINEL,SPACES                                                  
         LA    R3,TSKLENQ(R3)                                                   
         LA    R1,SRVPFKH                                                       
         CR    R3,R1                                                            
         JL    DTI020                                                           
*                                                                               
         L     R1,DISPLOOP                                                      
         LA    R1,1(R1)                                                         
         ST    R1,DISPLOOP         LOOP FOR 60 SECONDS AT 1 SEC                 
         CLC   DISPLOOP,=F'60'                                                  
         JL    DTI010                                                           
*                                                                               
         J     EXIT                                                             
*                                                                               
         MVI   SRVMSG,C'('         SET MESSAGE                                  
         MVC   SRVMSG+1(L'SYSNAME),SYSNAME                                      
         LA    RF,SRVMSG+L'SYSNAME+1                                            
         CLI   0(RF),C' '                                                       
         JH    *+8                                                              
         JCT   RF,*-8                                                           
         MVI   1(RF),C')'                                                       
         LA    RF,3(RF)                                                         
         MVC   0(L'MSG1,RF),MSG1                                                
         OI    HDR.FHOI,FHOITR     TRANSMIT IT                                  
*                                                                               
EXIT     L     R1,CURSOR                                                        
         OI    6(R1),X'40'         AND SET CURSOR                               
         OC    AHELP,AHELP                                                      
         JNZ   HELPOUT                                                          
         XMOD1 ,                                                                
*                                                                               
EXITEQU  CR    RB,RB                                                            
         J     XIT1                                                             
EXITNEQ  LTR   RB,RB                                                            
XIT1     XIT1                                                                   
         EJECT                                                                  
***********************************************************************         
* INITIALISE ALL VALUES                                               *         
***********************************************************************         
INIT     NTR1  ,                                                                
         L     R2,ASSB                                                          
         USING SSBD,R2                                                          
         MVC   SYSNAME,SSBSYSN4    GET SYSTEM NAME                              
         MVC   LOCORE,SSBLOADR                                                  
         MVC   HICORE,SSBHIADR                                                  
         MVC   AFID,SSBAFID                                                     
*                                                                               
         MVC   MYALET,SSBALET      ALET DMGR                                    
         MVC   MYTBLET,SSBTBLET    ALET TABS                                    
*                                                                               
         GOTO1 AORALL,DMCB         GET ALETS AND AFACALET                       
         MVC   AFACALET,0(R1)                                                   
*                                                                               
         LAM   AR2,AR2,MYALET      CREATE TABLE OF ASID/FACIDS                  
         XR    R2,R2                                                            
         SAC   512                                                              
         USING DMDSHDR,R2                                                       
         L     R2,DHAADVS                                                       
         USING DSJOBD,R2                                                        
         LA    R0,DSJOBMXQ         Max jobs to look at                          
         LA    R3,FACASIDS                                                      
INIT010  CLI   DSJADV,0                                                         
         JE    INIT020                                                          
         MVC   0(2,R3),DSJASID                                                  
         MVC   2(2,R3),DSJADV                                                   
         LA    R3,4(R3)                                                         
INIT020  LA    R2,DSJOBLNQ(,R2)                                                 
         JCT   R0,INIT010                                                       
*                                                                               
         LAM   AR2,AR2,MYTBLET     INIT TABS AREAS                              
         XR    R2,R2                                                            
         USING FATABSD,R2                                                       
         L     R2,TABSRUN                                                       
         USING TABSRUND,R2                                                      
         XR    R1,R1                                                            
         IC    R1,TABSSRWD         SERVER WIDTH                                 
         STH   R1,TABSVRW                                                       
         IC    R1,TABSJBWD         JOB WIDTH                                    
         STH   R1,TABQUEW                                                       
         MVC   TABASVR,TABSASVR                                                 
         MVC   TABAQUE,TABSAQUE                                                 
         MVC   TABNSVR,TABSNSVR                                                 
         MVC   TABNQUE,TABSNQUE                                                 
         SAC   0                                                                
*                                                                               
INITX    XIT1  ,                                                                
         DROP  R2                                                               
         EJECT                                                                  
***********************************************************************         
* NEW DTI TASK ROUTINE                                                *         
***********************************************************************         
NEWDTI   NTR1  ,                                                                
         MVCI  WORK,X'0102030405060708'                                         
*                                                                               
         L     R6,AFACALET                                                      
         USING FACALETD,R6                                                      
*                                                                               
         MVC   SRVHDR,TASKHDR                                                   
         OI    SRVHDRH+6,X'80'                                                  
         MVC   SRVHDRU,TASKHDRU                                                 
         OI    SRVHDRUH+6,X'80'                                                 
         LA    R3,SRVL1H                                                        
         USING TSKLINED,R3                                                      
*                                                                               
NEWDTI00 DS    0H                                                               
         CLI   FACALSTD,C'Y'                                                    
         JNE   NEWDTI03                                                         
         CLI   FACALAVL,C'Y'                                                    
         JNE   NEWDTI03                                                         
*                                                                               
         LAM   AR2,AR2,FACALALE    ADDRESS TARGET FACPAK                        