*          DATA SET MCXIT      AT LEVEL 001 AS OF 07/01/76                      
         MACRO                                                                  
&NAME XIT                                                                       
&NAME    L     RD,4(RD)                                                         
         LM    RE,RC,12(RD)                                                     
         LTR   RE,RE                                                            
         BZ    *+6                                                              
         BR    RE                                                               
         MEND                                                                   
