*          DATA SET DDDATGEN   AT LEVEL 186 AS OF 05/01/02                      
*CATALP T00A19A                                                                 
         TITLE 'DATGEN- NETWORK DATE HANDLING UTILITY ROUTINES'                 
         EJECT                                                                  
         MACRO                                                                  
&NAME    CLEAN &I,&L,&C                                                         
         LCLA  &L1                                                              
         LCLC  &L2                                                              
&L1      SETA  &L-1                                                             
&NAME    MVI   &I,&C                                                            
         AIF   (T'&I EQ 'U').SS1                                                
         MVC   &I+1(&L1),&I                                                     
         AGO   .SS                                                              
.SS1     ANOP                                                                   
         AIF   ('&I'(K'&I-2,1) NE 'R').SS                                       
&L2      SETC  '1+'.'&I'(1,K'&I-3).'&L1,'.'&I'(K'&I-2,3)                        
         MVC   &L2,&I                                                           
.SS      MEND                                                                   
*                                                                               
         EJECT                                                                  
         PRINT NOGEN                                                            
NDDATES  CSECT                                                                  
         NMOD1 WORKX-WORKD,**NETUL**,RA,RR=R2                                   
         USING WORKD,RC                                                         
         L     R7,0(R1)                                                         
         USING NDDATB,R7                                                        
         ST    R2,RELO                                                          
*                                                                               
******** ROUTINE NUMBERS MUST CORRESPOND TO THOSE IN NENDEQUS *****             
*                                                                               
         LR    RF,R7                                                            
         SRL   RF,24               GET ROUTINE NUMBER                           
         BAS   RE,VALID                                                         
         SLL   RF,2                MULTIPLY BY 4                                
         B     VBRANCH(RF)                                                      
*                                                                               
VBRANCH  B     VERROR              0                                            
         B     NDPERLST            1                                            
         B     NDMNAME             2                                            
         B     NDADDAY             3                                            
         B     VERROR              4                                            
         B     VERROR              5                                            
         B     VERROR              6                                            
         B     VERROR              7                                            
         B     NDWKST              8                                            
         B     NDWKEN              9                                            
         B     NDMONST             10                                           
         B     NDMONEN             11                                           
         B     NDQTRST             12                                           
         B     NDQTREN             13                                           
         B     NDYRST              14                                           
         B     NDYREN              15                                           
         B     NDBETWN             16                                           
         B     NDDOW               17                                           
*                                                                               
VCOUNT   EQU   (*-VBRANCH)/4                                                    
VERROR   DS    0H                                                               
*                                                                               
*                                                                               
         EJECT                                                                  
VALID    NTR1                                                                   
         CH    RF,=H'3'            NOT FOR NEADDAY                              
         BE    VT0                                                              
         CH    RF,=H'1'                                                         
         BNE   VT4                                                              
         LA    R3,NDLPR            VALIDATE THE LENGTH OF THE PERIOD            
         LA    R4,TYPL1                                                         
         LA    R6,5                                                             
         BAS   RE,VAL                                                           
*                                                                               
VT4      LA    R3,NDTPR            VALIDATE THE TYPE OF THE PERIOD              
         LA    R4,TYPL2                                                         
         LA    R6,7                                                             
         BAS   RE,VAL                                                           
*                                                                               
VT0      LA    R8,NDBYR            VALIDATE THE BEGINING OF THE YEAR            
         BAS   RE,VALBY                                                         
         CLI   ERB,1                                                            
         BNE   VT1                                                              
         MVC   NDBYR(2),=2X'01'                                                 
*                                                                               
VT1      CLI   NDSWDOW,0           VALIDATE THE BEGINING OF THE WEEK            
         BE    VT2                                                              
         CLI   NDSWDOW,7                                                        
         BH    VT2                                                              
         B     *+8                                                              
VT2      MVI   NDSWDOW,1                                                        
*                                                                               
         CH    RF,=H'1'            ONLY FOR GETLIST                             
         BE    *+12                                                             
         CH    RF,=H'14'                                                        
         BNE   VT3                                                              
         CLC   NDEDAT,NDBDAT      VALIDATE THE BEGINING VS THE END DATE         
         BNL   *+6                                                              
         DC    H'0'                                                             
*                                                                               
         LH    R8,NDBDAT           VALIDATE THE BEGINING DATE                   
         BAS   RE,VALD                                                          
         MVC   STRTDAT,CURDATE                                                  
*                                                                               
VT3      LH    R8,NDEDAT           VALIDATE THE END DATE                        
         BAS   RE,VALD                                                          
         MVC   ENDDAT,CURDATE                                                   
*                                                                               
         L     R8,NDAMTBL          SET THE MONTH TABLE                          
         CLI   NDTPR,C'C'                                                       
         BE    BLTC                                                             
         CLI   NDTPR,C'B'                                                       
         BE    BLTB                                                             
         CLI   NDTPR,C'S'                                                       
         BE    BLTX                                                             
         CLC   NDTPR,=C'1S'                                                     
         BNE   *+14                                                             
         MVC   0(12,R8),=4AL1(34,27,27)                                         
         B     BLTX                                                             
         CLC   NDTPR,=C'2S'                                                     
         BNE   *+14                                                             
         MVC   0(12,R8),=4AL1(27,34,27)                                         
         B     BLTX                                                             
         CLC   NDTPR,=C'3S'                                                     
         BNE   *+14                                                             
         MVC   0(12,R8),=4AL1(27,27,34)                                         
         B     BLTX                                                             
         CLEAN 0(R8),13,X'1B'                                                   
         B     BLTX                                                             
BLTC     MVI   0(R8),X'1E'                                                      
         BAS   RE,UTSETYR                                                       
         ABIN  S,(1,YRTBL+5),1,OT=(1,1(R8))                                     
         MVC   2(10,R8),=X'1E1D1E1D1E1E1D1E1D1E'                                
         B     BLTX                                                             
BLTB     CLEAN 0(R8),12,X'BB'                                                   
BLTX     XIT1                                                                   
         EJECT                                                                  
VAL      NTR1                                                                   
VAL1     ZIC   R5,0(R3)                                                         
         EX    R5,COMP                                                          
         BE    VALX                                                             
         LA    R3,1(R5,R3)                                                      
         BCT   R6,VAL1                                                          
         DC    H'0'                                                             
COMP     CLC   0(0,R3),0(R4)                                                    
VALX     XIT1                                                                   
*                                                                               
VALD     NTR1                                                                   
         BAS   RE,UTUNCOM                                                       
         CLI   CURYEAR,99                                                       
         BH    VALDX                                                            
         BAS   RE,UTINIT                                                        
         MVC   TYPL3(12),=X'1F1D1F1E1F1E1F1F1E1F1E1F'                           
         MVC   TYPL3+1(1),YRTBL+5                                               
         LA    R8,CURMONTH                                                      
         BAS   RE,VALBY                                                         
         CLI   ERB,1                                                            
         BNE   *+6                                                              
VALDX    DC    H'0'                                                             
         XIT1                                                                   
*                                                                               
VALBY    NTR1                                                                   
         XC    ERB,ERB                                                          
         CLC   0(2,R8),=2X'00'                                                  
         BE    VALBYX                                                           
         CLI   0(R8),0                                                          
         BE    VALBYX                                                           
         CLI   0(R8),12                                                         
         BH    VALBYX                                                           
         ABIN  S,(1,0(R8)),1,OT=(R3)                                            
         ABIN  A,%TYPL3,(3),OT=(3)                                              
         CLC   1(1,R8),0(R3)                                                    
         BH    VALBYX                                                           
         B     *+8                                                              
VALBYX   MVI   ERB,1                                                            
         XIT1                                                                   
         EJECT                                                                  
***********************************************************************         
* NDPERLST- ROUTINE WHICH WILL RETURN A LIST OF DATES IN COMPRESSED   *         
*           FORM.EACH ENTRY IN THE LIST HAS 4 BYTES,REPRESENTING THE  *         
*           BEGINING AND THE END OF EACH PERIOD.                      *         
*           USER CALLABLE                                             *         
*             R1-> BLOCK OF PARAMETERS(NDDATB)                        *         
*                                                                     *         
*         NECESSARY PARAMETERS:                                       *         
*             NDLPR,NDTPR,NDBDAT,NDEDAT,NDALIST,NDNEL                 *         
*                                                                     *         
*         OPTIONAL PARAMETERS:                                        *         
*             NDBYR,NDSWDOW,NDAMTBL                                   *         
***********************************************************************         
NDPERLST DS    0H                                                               
*                                                                               
         CLI   NDLPR,C'D'                                                       
         BE    DAYLIST                                                          
         CLI   NDLPR,C'W'      CHAR DESCRIBES LIST TYPE                         
         BE    WKLIST                                                           
         CLI   NDLPR,C'M'                                                       
         BE    MONLIST                                                          
         CLI   NDLPR,C'Q'                                                       
         BE    QRTLIST                                                          
         CLI   NDLPR,C'Y'                                                       
         BE    YRLIST                                                           
*                                                                               
DAYLIST  LA    R2,DAYHK1                                                        
         B     DMYLIST                                                          
*                                                                               
DAYHK1   NTR1                                                                   
         XIT1                                                                   
*                                                                               
WKLIST   LA    R2,WKLSTHK1                                                      
         ST    R2,FIL1HOOK         ROUTINE TO GET FIRST OF WEEK                 
         LA    R2,WKLSTHK2         ROUTINE TO GET PREV WEEK                     
         ST    R2,FIL2HOOK                                                      
         BAS   RE,FILLIST          FILL THE LIST                                
         B     GLXIT                                                            
WKLSTHK1 NTR1                                                                   
         ZIC   R8,NDSWDOW                                                       
         BAS   RE,UTPRVDOW         GET LAST DOW = START DOW                     
         XIT1                                                                   
WKLSTHK2 NTR1                      HAVE END-OF-WK, GET STRT-OF-WK               
         L     R8,=F'-6'           SO SUBTRACT SIX DAYS                         
         BAS   RE,UTADDAY                                                       
         XIT1                                                                   
*                                                                               
MONLIST  LA    R2,UTFRSTMN         ROUTINE TO GET FIRST OF MONTH                
         B     DMYLIST                                                          
*                                                                               
QRTLIST  LA    R2,UTFRSTQR                                                      
         B     DMYLIST                                                          
*                                                                               
YRLIST   LA    R2,UTFRSTYR                                                      
*                                                                               
DMYLIST  ST    R2,FIL1HOOK         USE IT AS A HOOK                             
         ST    R2,FIL2HOOK         SERVES DOUBLE DUTY                           
         BAS   RE,FILLIST                                                       
         B     GLXIT                                                            
*                                                                               
GLXIT    XIT1                                                                   
         EJECT                                                                  
***********************************************************************         
*                                                                     *         
* FILLIST -  MODULE TO FILL IN A PERIOD LIST.                         *         
*   INPUTS: STRTDAT, ENDDAT -  START AND END DATES                    *         
*           MAXNTRYS - MAXIMUM ENTRIES TO PUT IN LIST. MINIMUM 3.     *         
*           OUTLIST  - ADDRESS OF LIST TO BUILD                       *         
*           FIL1HOOK - THE ROUTINE TO GET BEGINNING OF LAST PERIOD    *         
*           FIL2HOOK - THE ROUTINE TO GET BEGINNING OF ALL OTHER PERS *         
*                COMDAT - COMPRESSED CURRENT DATE FILLED BY FILADDR   *         
*                                                                     *         
*    OUTPUTS: OUTLIST - FILLED IN. FIRST SET IS MINDAT TO STRTDAT-1   *         
*                            LAST IS ENDDAT+1 TO MAX DATE.            *         
*             MAXNTRYS - NUMBER OF ENTRIES IN LIST                    *         
*                                                                     *         
*   LOCALS : R3 - CURRENT ADDRESS IN LIST                             *         
*            R4 - CURRENT NUMBER OF ENTRIES LEFT IN LIST              *         
*            R5 - A(OUTLIST)                                          *         
*            R6 - INPUT MAX NUMBER ENTRIES                            *         
***********************************************************************         
FILLIST  NTR1                                                                   
*                                                                               
         L     R5,NDALIST                                                       
         L     R6,NDNEL                                                         
         LR    R3,R6                                                            
         BCTR  R3,0                                                             
         SLL   R3,2                  EACH ENTRY IS 4 BYTES                      
         LA    R3,0(R3,R5)         POINT R3 TO LAST ENTRY IN LIST               
         LTR   R4,R6                                                            
         BZ    XITFILL             IF NO ENTRIES REQUESTED                      
         BCTR  R4,0                R4 IS NUMBER OF ENTRIES LEFT IN LIST         
*                                                                               
*                                                                               
STRTFIL  MVC   CURDATE,ENDDAT                                                   
         BAS   RE,COMPRESS                                                      
         MVC   2(2,R3),COMDAT                                                   
         BAS   RE,COMPRESS                                                      
         L     RF,FIL1HOOK                                                      
         BASR  RE,RF               GET THE BEGINNING OF THIS PERIOD             
         BAS   RE,COMPRESS         COMPRESS THIS DATE INTO COMDAT               
FILLOOP  CLC   CURDATE,STRTDAT     IF NEW DATE BEFORE (OR =) START              
         BH    FL2                                                              
         MVC   CURDATE,STRTDAT                                                  
         BAS   RE,COMPRESS                                                      
         MVC   0(2,R3),COMDAT      ..START DATE IS BEGINNING OF PERIOD          
         B     FILLED              ..LIST DONE                                  
*                                                                               
FL2      MVC   0(2,R3),COMDAT      NEW DATE IS BEGINNING OF PERIOD              
         LTR   R4,R4               CHECK FOR END OF LIST                        
         BNH   LISTFULL                                                         
         LH    R8,=H'-1'                                                        
         BAS   RE,UTADDAY          GET DAY BEFORE                               
         BAS   RE,COMPRESS         COMPRESS THIS DATE                           
         SH    R3,=H'4'            PREVIOUS ENTRY IN LIST                       
         MVC   2(2,R3),COMDAT      STORE NEXT ENDDATE                           
         BCTR  R4,0                                                             
*                                                                               
*                                                                               
SOMELEFT L     RF,FIL2HOOK                                                      
         BASR  RE,RF               GET BEGINNING OF THIS PERIOD                 
         BAS   RE,COMPRESS         COMPRESS THIS NEW DATE (SET COMDAT)          
         B     FILLOOP                                                          
*                                                                               
LISTFULL B     XITFILL                                                          
*                                                                               
FILLED   DS    0H                  NOW ALIGN LIST SO STARTS AT OUTLIST          
         LR    R2,R6                                                            
         SR    R2,R4               NUMBER OF ENTRIES USED                       
         ST    R2,NDNEL            RETURN NUMBER USED                           
         SLL   R2,2                NUMBER OF BYTES USED                         
         MOVE  ((R5),(R2)),(R3)                                                 
*                                                                               
         LA    R5,0(R5,R2)         END OF CURRENT LIST                          
         SLL   R6,2                NUM OF BYTES IN USER SUPPLIED LIST           
         SR    R6,R2               NUMBER OF BYTES TO CLEAR                     
         XCEF  (R5),(R6)           CLEAR OUT REST OF LIST                       
*                                                                               
XITFILL  XIT1                                                                   
         EJECT                                                                  
*********************************************************************           
* NDMNAME  - RETURNS THE ALPANUMERIC MONTH FOR THE COMPRESSED DATE. *           
*            USER CALLABLE                                          *           
*                R1-> BLOCK OF PARAMETERS(NDDATB)                   *           
*    NECESSARY PARAMETERS:                                          *           
*       NDTPR                                                       *           
*       NDEDAT : INPUT DATE                                         *           
*       NDALIST: (OUTPUT)  BYTE 0: LENGTH OF ALPHA REQUIRED (9 MAX) *           
*                          BYTE 1-3: A(OUTPUT FIELD FOR ALPHA)      *           
*                                                                   *           
*    OPTIONAL PARAMETERS:                                           *           
*       NDBYR,NDSWDOW,NDAMTBL                                       *           
*********************************************************************           
NDMNAME  DS    0H                                                               
         LH    R8,NDEDAT           COMPRESSED DATE                              
         ZIC   R3,NDALIST          NUMBER OF BYTES TO MOVE                      
         BCTR  R3,0                ONE LESS MORE EXMVC                          
         L     R4,NDALIST          OUTPUT AREA ADDRESS                          
         BAS   RE,UNCOMPRS         GET IN NORMAL FORM                           
         BAS   RE,UTYR             MONTH NUMBER                                 
         L     R4,WAM                                                           
         ZIC   R2,0(R4)                                                         
         MH    R2,=H'9'            OFFSET INTO LOOKUP TABLE                     
         LA    R2,MONLKUP(R2)                                                   
         EXMVC R3,0(R4),0(R2)                                                   
         XIT1                                                                   
         EJECT                                                                  
***********************************************************************         
* NDADDAY - USER CALLABLE ADDAY ROUTINE.                              *         
*           R1->BLOCK OF PARAMETERS(NDDATB)                           *         
*    NECESSARY PARAMETERS:                                            *         
*          NDEDAT  : INPUT DATE                                       *         
*          NDALIST : A(RETURNED DATE)                                 *         
*          NDNEL   : A(FULLWORD TO ADD IN)                            *         
***********************************************************************         
NDADDAY  DS    0H                                                               
         LH    R8,NDEDAT           COMPRESSED DATE                              
         L     R3,NDALIST          ADDRESS OF RETURN DATE                       
         L     R4,NDNEL            ADRESS OF FULLWORD TO ADD                    
         BAS   RE,UNCOMPRS         GET IN NORMAL FORM                           
         L     R8,0(R4)            FULLWORD TO ADD                              
         BAS   RE,UTADDAY          ADD IT                                       
         BAS   RE,COMPRESS         RECOMPRESS IT                                
         MVC   0(2,R3),COMDAT      MOVE IT TO OUTPUT AREA                       
         XIT1                                                                   
         EJECT                                                                  
***********************************************************************         
* NDWKST  - USER CALLABLE ROUTINE FOR THE FIRST DAY OF THE WEEK       *         
***********************************************************************         
* NDWKEN  - USER CALLABLE ROUTINE FOR THE LAST DAY OF THE WEEK        *         
***********************************************************************         
* NDMONST - USER CALLABLE ROUTINE FOR THE FIRST DAY OF THE MONTH      *         
***********************************************************************         
* NDMONEN - USER CALLABLE ROUTINE FOR THE LAST DAY OF THE MONTH       *         
***********************************************************************         
* NDQTRST - USER CALLABLE ROUTINE FOR THE FIRST DAY OF THE QUARTER    *         
***********************************************************************         