*          DATA SET DDEDISUB   AT LEVEL 058 AS OF 02/04/16                      
*CATALP EDISUB                                                                  
         TITLE 'DDEDISUB -- ROUTINES FOR USE BY EDICT SUBTASKS'                 
         MACRO                                                                  
&NAME    PRNT  &A,&N,&PRINT=                                                    
&NAME    MVC   P(17),=CL17'&A'                                                  
         TIME  DEC                                                              
         ST    R0,PRNTDUB&N                                                     
         MVI   PRNTDUB&N+4,X'0F'                                                
         UNPK  PRNTIME&N,PRNTDUB&N.(5)                                          
         MVC   P+18(2),PRNTIME&N                                                
         MVI   P+20,C':'                                                        
         MVC   P+21(2),PRNTIME&N+2                                              
         MVI   P+23,C':'                                                        
         MVC   P+24(2),PRNTIME&N+4                                              
         MVI   P+26,C'.'                                                        
         MVC   P+27(2),PRNTIME&N+6                                              
         AIF   ('&PRINT' EQ 'ALWAYS').SKIP                                      
         L     RF,=V(TRACEFLG)                                                  
         CLI   0(RF),C'Y'                                                       
         BNE   *+10                                                             
.SKIP    L     RF,=V(PRINTER)                                                   
         BASR  RE,RF                                                            
         MVI   P,C' '                                                           
         MVC   P+1(L'P-1),P                                                     
         MEND                                                                   
         EJECT                                                                  
**********************************************************************          
* EID SUBROUTINES                                                               
*     FINDEST  - EXTACT EDICT RECORD                                            
*     INITPQRD - READ PQ ENTRY AND SET PQHDR AND *HDR* INFO                     
*     PQGETLIN - READ PQ LINE BY LINE AFTER THE INITPQRD                        
*     POSTSENT - MARK ETI RECORD AS SENT AND/OR DELIVERED                       
*     CONVDSKA - CONVERT KEY TO DISK ADDRESS TO GET EDICT RECORD                
**********************************************************************          
EDISUB   CSECT                                                                  
         PRINT NOGEN                                                            
         ENTRY FINDDEST                                                         
         ENTRY INITPQRD                                                         
         ENTRY PQGETLIN                                                         
         ENTRY POSTSENT                                                         
         ENTRY CONVDSKA                                                         
                                                                                
**********************************************************************          
* FIND AN EDICT RECORD KEY IN THE DESTINATION TABLE.  UPON ENTRY,               
*   ON EXIT,  R1 POINTS TO AN AREA IN THIS ROUTINE'S WORKING STORAGE.           
*               VALUES MUST BE EXTRACTED IMMEDIATELY UPON RETURN!!!             
*               CONDITION CODE SET NOT EQUAL IF ENTRY NOT FOUND                 
**********************************************************************          
         USING CIDATAD,R6                                                       
FINDDEST NMOD1 FNDDESTX-FNDDESTD,**FNDS**                                       
         USING FNDDESTD,RC                                                      
         LR    R2,R1                                                            
         USING DSTPARMD,R2                                                      
*                                                                               
         L     RA,=V(CPRINT)                                                    
         USING DPRINT,RA                                                        
*                                                                               
* DSTKEY IS ONLY 24-BIT ADDR AND 1ST BYTE IS USED (A/R/T).                      
         SR    R3,R3                                                            
         ICM   R3,7,DSTKEY+1       KEY TO SEARCH FOR                            
*                                                                               
         L     R8,DSTMAJNM         MAJOR RESOURCE NAME                          
         LA    R9,=C'DSTTABLE'     MINOR RESOURCE NAME                          
         MVC   P+30(8),0(R8)                                                    
         MVC   P+40(8),0(R9)                                                    
         PRNT  ENQUEUE,1                                                        
         ENQ   ((8),(9),E,8)       ENQUEUE THE DESTINATION TABLE                
*                                                                               
         SAM31                                                                  
         L     R4,DSTTBL           START OF TABLE                               
         LR    R1,R4                                                            
         SHI   R1,2                R1 = A(2 BYTE ENTRY LEN)                     
         SR    R5,R5                                                            
         ICM   R5,3,0(R1)          R5 = ENTRY LEN                               
*                                                                               
VFND10   CLI   0(R4),X'FF'         END OF TABLE?                                
         BNE   VFND20                                                           
         SAM24                                                                  
*                                                                               
         MVC   P+30(8),0(R8)                                                    
         MVC   P+40(8),0(R9)                                                    
         PRNT  DEQUEUE,1                                                        
         DEQ   ((8),(9),8)         DEQUEUE THE DESTINATION TABLE                
*                                                                               
         SR    R1,R1               NO ENTRY FOUND -- SET CC NOT EQUAL           
         LTR   RB,RB                                                            
         B     VFNDXIT                                                          
*                                                                               
         USING DESTTABD,R4                                                      
VFND20   CLI   DSTCNTRL,0          MATCH ON EDICT KEY?                          
         BNE   VFND30                                                           
         CLC   DESTNAME,0(R3)                                                   
         BE    VFND50                                                           
         AR    R4,R5                                                            
         B     VFND10                                                           
*                                                                               
VFND30   CLI   DSTCNTRL,C'A'       MATCH ON ADV EASYLINK MAILBOX?               
         BE    VFND35                                                           
         CLI   DSTCNTRL,C'T'       (TESTING)                                    
         BE    VFND35                                                           
         CLI   DSTCNTRL,C'Q'       (FQA)                                        
         BNE   VFND40                                                           
VFND35   CLC   DESTADVN,0(R3)                                                   
         BE    VFND50                                                           
         AR    R4,R5                                                            
         B     VFND10                                                           
*                                                                               
VFND40   CLI   DSTCNTRL,C'R'       MATCH ON REP EASYLINK MAILBOX?               
         BE    *+6                                                              
         DC    H'0'                WHO CALLED US?                               
         CLC   DESTREPN,0(R3)                                                   
         BE    VFND50                                                           
         AR    R4,R5                                                            
         B     VFND10                                                           
*                                                                               
VFND50   MVC   DESTNTRY,0(R4)      DESTINATION TABLE ENTRY                      
         DROP  R4                                                               
*                                                                               
         SAM24                                                                  
         MVC   P+30(8),0(R8)                                                    
         MVC   P+40(8),0(R9)                                                    
         PRNT  DEQUEUE,1                                                        
         DEQ   ((8),(9),8)         DEQUEUE THE DESTINATION TABLE                
*                                                                               
         LA    R1,DESTNTRY         PASS BACK A(BLOCK)                           
         SR    RF,RF               SET CC EQUAL                                 
         LTR   RF,RF                                                            
*                                                                               
VFNDXIT  XIT1  REGS=(R1)                                                        
         DROP  R2,RA,RB,RC                                                      
                                                                                
         LTORG                                                                  
*********************************************************************           
* DSECT                                                                         
*********************************************************************           
FNDDESTD DSECT                                                                  
         DS    0D                                                               
DESTNTRY DS    XL(255)             RETURN A(THIS BLOCK)                         
*DESTNTRY DS    XL(DESTTBLQ)        RETURN A(THIS BLOCK)                        
PRNTDUB1 DS    D                                                                
PRNTIME1 DS    CL9                                                              
FNDDESTX EQU   *                                                                
         EJECT                                                                  
*********************************************************************           
* INITIALIZE TO READ A PRINT QUEUE REPORT.  RETURN CC NOT EQUAL IF              
* LOGICAL REPORT WAS NOT FOUND.  ON INPUT, R1 POINTS TO PQPARMD.                
*********************************************************************           
EDISUB   CSECT                                                                  
         DS    XL((4*K)-(*-EDISUB))                                             
INITPQRD NMOD1 INPQWRKX-INPQWRKD,**INPQ**                                       
         USING INPQWRKD,RC                                                      
         LR    R2,R1                                                            
         USING PQPARMD,R2                                                       
*                                                                               
         L     RA,=V(CPRINT)                                                    
         USING DPRINT,RA                                                        
*                                                                               
         MVI   PQREPOK,C'N'                                                     
         L     RE,APQBUFF          A(PRINT QUEUE BUFFER)                        
         L     RF,=F'14336'                                                     
         XCEFL                                                                  
*                                                                               
         L     R3,ATBLNTRY         A(TABLE ENTRY)                               
         USING XMTTABLD,R3                                                      
*                                                                               
         L     R6,ACITABLE         PRINT QUEUE INFO TABLE                       
         ZIC   R0,XMTPRTQ                                                       
         BCTR  R0,0                                                             
         MHI   R0,CITBLLNQ                                                      
         AR    R6,R0               R6 = A(THIS PQ ENTRY)                        
*                                                                               
         LA    RF,INDEX            USE REP NUM TO INITIALIZE BUFFER             
         XC    INDEX,INDEX                                                      
         USING UKRECD,RF                                                        
         MVC   UKSRCID,=H'1'       DUMMY UID#                                   
         MVC   UKREPNO,XMTREFNO                                                 
         MVI   UKFLAG,UKFLNUM+UKFLCIA                                           
         GOTO1 ADTAMGR,DMCB3,(0,=C'INDEX'),CFPQID,INDEX,APQHDR,APQBUFF          
         CLI   DMCB3+8,0                                                        
         BE    *+6                                                              
         DC    H'0'                                                             
         DROP  RF                                                               
*                                                                               
         L     RF,APQHDR                                                        
         XC    0(256,RF),0(RF)                                                  
         MVI   4(RF),C'L'          SILLY PARAMETER FOR RANDOM READ              
         GOTO1 ADTAMGR,DMCB3,(0,=C'RANDOM'),CFPQID,0,APQHDR,APQBUFF             
         CLI   DMCB3+8,0                                                        
         BE    *+6                                                              
         DC    H'0'                                                             
*                                                                               
         L     RF,APQHDR                                                        
         USING PQPLD,RF                                                         
         TM    QLSTAT,X'80'        REPORT IN STATUS ACTIVE?                     
         BZ    VINPQ10             NO                                           
         CLC   XMTUSRID,QLSRCID    IS THE REPORT STILL THERE?                   
         BNE   VINPQ10                                                          
         CLC   XMTREFNO,QLREPNO                                                 
         BNE   VINPQ10                                                          
         CLC   XMTCRTIM,QLAGELT                                                 
         BE    VINPQ20                                                          
         DROP  RF                                                               
*                                                                               
VINPQ10  PRNT  REPORTNOTFOUND,3,PRINT=ALWAYS                                    
         B     VINPQX                                                           
*                                                                               
VINPQ20  SR    R0,R0                                                            
         ICM   R0,3,XMTLOGNO       LOGICAL REPORT NUMBER WE WANT                
         BCTR  R0,0                R0 = NO. OF LOGICAL REPORTS TO SKIP          
         LTR   R0,R0                                                            
         BZ    VINPQ40                                                          
         DROP  R3                                                               
*                                                                               
VINPQ30  GOTO1 ADTAMGR,DMCB3,(0,=C'READ'),CFPQID,0,AEDHDR,APQBUFF               
         CLI   DMCB3+8,0           READ A RECORD                                
         BNE   VINPQX                                                           
         L     RF,AEDHDR                                                        
         CLC   =C'*** END OF DDS MESSAGE ***',1(RF)                             
         BNE   VINPQ30                                                          
         BCT   R0,VINPQ30                                                       
*                                                                               
VINPQ40  L     RF,AEDHDR                                                        
         XC    0(256,RF),0(RF)                                                  
         GOTO1 ADTAMGR,DMCB3,(0,=C'READ'),CFPQID,0,AEDHDR,APQBUFF               
         CLI   DMCB3+8,0           READ A RECORD                                
         BNE   VINPQX              END OF PQ CONTROL INTERVAL                   
         L     RF,AEDHDR                                                        
         CLC   =C'*HDR*',5(RF)     IS THIS A HEADER RECORD?                     
         BNE   VINPQ40             NO -- FIND BEGINNING OF LOGICAL RPT          
         MVI   PQREPOK,C'Y'                                                     
*                                                                               
VINPQX   CLI   PQREPOK,C'Y'                                                     
         BE    *+12                                                             
         LA    R1,1                NO PQ REPORT -- SET CC NOT EQUAL             
         B     *+6                                                              
         SR    R1,R1               REPORT FOUND -- SET CC EQUAL                 
         LTR   R1,R1                                                            
         XIT1                                                                   
         DROP  R2,RA,RB,RC                                                      
                                                                                
         LTORG                                                                  
*********************************************************************           
* DSECTS                                                                        
*********************************************************************           
INPQWRKD DSECT                                                                  
DMCB3    DS    10F                                                              
PRNTDUB3 DS    D                                                                
PRNTIME3 DS    CL9                                                              
INDEX    DS    XL40                                                             
PQREPOK  DS    C                   'Y' OR 'N'                                   
INPQWRKX EQU   *                                                                
         EJECT                                                                  
**********************************************************************          
* RETURN ONE LINE AT A TIME OF A PRINT QUEUE REPORT.                            
* RETURN CC NOT EQUAL AT END OF REPORT                                          
**********************************************************************          
EDISUB   CSECT                                                                  
         DS    XL((8*K)-(*-EDISUB))                                             
PQGETLIN NMOD1 RDPQWRKX-RDPQWRKD,**RDLN**                                       
         USING RDPQWRKD,RC                                                      
         LR    R2,R1                                                            
         USING PQPARMD,R2                                                       
*                                                                               
         L     R3,ATBLNTRY         A(TABLE ENTRY)                               
         USING XMTTABLD,R3                                                      
         L     R6,ACITABLE         PRINT QUEUE INFO TABLE                       
         ZIC   R0,XMTPRTQ                                                       
         BCTR  R0,0                                                             
         MHI   R0,CITBLLNQ                                                      
         AR    R6,R0               R6 = A(THIS PQ ENTRY)                        
*                                                                               
         LA    R9,255              MAX LENGTH FOR DOWNLOADABLE REPORT           
         CLI   XMTMETH,C'P'        BDE-FTP METHOD?                              
         BNE   *+8                                                              
         LA    R9,999              999 FOR BDF DOWNLOADABLE REPORT              
*                                  BLANK PADDED THE BUFFER                      
VRDPQL10 L     RE,APQLINE          A(PQ RECORD BUFFER)                          
         LA    RF,1(R9)                                                         
         SR    R0,R0                                                            
         SR    R1,R1                                                            
         ICM   R1,8,=C' '                                                       
         MVCL  RE,R0                                                            
*                                                                               
         GOTO1 ADTAMGR,DMCB2,(X'01',=C'READ'),CFPQID,0,APQLINE,        +        
               APQBUFF,0                                                        
         CLI   DMCB2+8,0           READ A RECORD                                
         BNE   NOMORE              END OF PQ CONTROL INTERVAL                   
         L     R4,APQLINE                                                       
         CLC   =C'*** END OF DDS MESSAGE ***',1(R4)                             
         BE    NOMORE                                                           
*                                                                               
         CLC   =C'++DDS',1(R4)     DDS CONTROL CARD?                            
         BE    GOT1                YES -- LEAVE IT ALONE                        
         TR    1(255,R4),TROUTBND  TRANSLATE NON-PRINTABLE INTO SPACES          
         CLC   1(255,R4),MYSPACES                                               
         BE    GOT1                                                             
*                                                                               
         L     RF,APQHDR                                                        
         TM    QLTYPE-PQPLD(RF),QLTYDL  DOWNLOADABLE REPORT?                    
         BZ    GOT1                NO                                           
*                                                                               
         CLI   1(R4),C':'          END OF REPORT?                               
         BE    VRDPQL10            YES                                          
*                                                                               
         LR    R1,R4               R4 = A(START OF RECORD)                      
         AH    R1,DMCB2+22         R1 = A(JUST PAST END OF RECORD)              
         LA    R0,X'5E'            SEMICOLON (END OF LOGICAL RECORD)            
         SRST  R1,R4               SEARCH FOR SEMICOLON IN RECORD               
         BC    4,GOT1              SEMICOLON FOUND, SO NO MERGE NEEDED          
*                                                                               
         LH    R5,DMCB2+22         CURRENT LENGTH OF THIS RECORD                
*                                                                               
VRDPQL50 MVC   WORK2,MYSPACES      READ NEXT PQ LINE                            
         GOTO1 ADTAMGR,DMCB2,(X'01',=C'READ'),CFPQID,0,WORK2,APQBUFF,0          
         CLI   DMCB2+8,0                                                        
         BNE   NOMORE              SHOULD NEVER HAPPEN: NO CONTINUATION         
*                                                                               
         LH    R1,DMCB2+22         LENGTH OF THIS RECORD                        
         LR    RF,R5               KEEP THIS LENGTH FOR MERGE                   
         AR    R5,R1               ADD TO CURRENT LENGTH OF THIS RECORD         
*                                  (INCLUDE A BLANK BEFORE THIS MERGE)          
*                                                                               
         CR    R5,R9               TOO BIG?                                     
         BH    FAIL                YES - FAIL                                   
*                                                                               
         TR    WORK2+1(255),TROUTBND  TRANSL NON-PRINTABLE INTO SPACES          
         AR    RF,R4               PT TO END OF THE INPUT BUFFER                
         BCTR  R1,0                -1 FOR CC CHAR                               
         EX    R1,*+8                                                           
         B     *+10                                                             
         MVC   1(0,RF),WORK2+1     MERGE THIS P-LINE TO THE RECORD              
*                                  (INCLUDE A BLANK BEFORE THIS MERGE)          
*                                                                               
         CLI   XMTMETH,C'F'        FTP METHOD?                                  
         BE    GOT1                YES - ONLY MERGE 1ST AND 2ND LINES           
*                                                                               
         LA    R1,2(R1,RF)         R1 = A(JUST PAST END OF RECORD)              
         LA    R0,X'5E'            SEMICOLON (END OF LOGICAL RECORD)            
         SRST  R1,RF               SEARCH FOR SEMICOLON IN RECORD               
         BC    4,GOT1              SEMICOLON FOUND                              
         B     VRDPQL50                                                         
*                                                                               
FAIL     L     RF,APQLINE          DOWNLOAD RECORD EXCEED 255                   
         MVC   0(2,RF),=X'FFFF'    RETURN X'FFFF' TO USER                       
         B     GOT1                                                             
NOMORE   LA    R1,1                SET CC NOT EQUAL                             
         B     *+6                                                              
GOT1     SR    R1,R1               SET CC EQUAL                                 
         LTR   R1,R1                                                            
         XIT1                                                                   
         DROP  R2,R3,RB,RC                                                      
                                                                                
         LTORG                                                                  
         EJECT                                                                  
**********************************************************************          
* CONSTANTS                                                                     
**********************************************************************          
MYSPACES DC    256C' '                                                          
         SPACE                                                                  
TROUTBND DS    0XL256                                                           
*                                                                               
*                0.1.2.3.4.5.6.7.8.9.A.B.C.D.E.F.                               
         DC    X'40404040404040404040404040404040' 00-0F                        
         DC    X'40404040404040404040404040404040' 10-1F                        
         DC    X'40404040404040404040404040404040' 20-2F                        
         DC    X'40404040404040404040404040404040' 30-3F                        
         DC    X'404142434445464748494A4B4C4D4E4F' 40-4F                        
         DC    X'505152535455565758595A5B5C5D5E5F' 50-5F                        
         DC    X'606162636465666768696A6B6C6D6E6F' 60-6F                        